Version 4
SHEET 1 1176 692
WIRE -96 -64 -192 -64
WIRE -32 -64 -96 -64
WIRE 224 -64 -32 -64
WIRE 448 -64 224 -64
WIRE 576 -64 448 -64
WIRE -32 -48 -32 -64
WIRE 448 -32 448 -64
WIRE 224 16 224 -64
WIRE -192 32 -192 16
WIRE -32 32 -32 16
WIRE -32 32 -192 32
WIRE -192 48 -192 32
WIRE 80 80 0 80
WIRE 448 80 448 32
WIRE 448 80 368 80
WIRE 576 80 576 16
WIRE 576 80 448 80
WIRE 0 96 0 80
WIRE 576 144 576 80
WIRE 80 160 -192 160
WIRE 528 160 368 160
WIRE 80 240 -16 240
WIRE 400 240 368 240
WIRE 576 272 576 240
WIRE 752 272 576 272
WIRE 880 272 832 272
WIRE 944 272 880 272
WIRE 1008 272 944 272
WIRE 1088 272 1008 272
WIRE -192 288 -192 240
WIRE 576 320 576 272
WIRE 944 336 944 272
WIRE -16 352 -16 304
WIRE -16 352 -192 352
WIRE 576 432 576 384
WIRE 944 464 944 400
WIRE 1008 464 944 464
WIRE 1088 464 1088 352
WIRE 1088 464 1008 464
WIRE 1008 496 1008 464
WIRE 400 544 400 240
WIRE 656 544 400 544
WIRE 688 544 656 544
WIRE 800 544 768 544
WIRE 880 544 880 272
WIRE 880 544 800 544
WIRE -192 640 -192 352
WIRE 96 640 -192 640
WIRE 224 640 224 304
WIRE 224 640 96 640
WIRE 400 640 400 624
WIRE 400 640 224 640
WIRE 656 640 656 544
WIRE 688 640 656 640
WIRE 800 640 800 544
WIRE 800 640 752 640
WIRE 96 672 96 640
FLAG 96 672 0
FLAG -192 48 0
FLAG 576 432 0
FLAG 1008 496 0
FLAG -96 -64 Vin
FLAG 1008 272 Vout
FLAG 0 96 0
SYMBOL PowerProducts\\LTC1771 224 160 R0
SYMATTR InstName U1
SYMBOL res 384 528 R0
SYMATTR InstName R1
SYMATTR Value 1Meg
SYMATTR SpiceLine tol=1
SYMBOL res -208 144 R0
SYMATTR InstName R2
SYMATTR Value 10K
SYMATTR SpiceLine tol=1
SYMBOL res 560 -80 R0
SYMATTR InstName Rsense
SYMATTR Value .02
SYMATTR SpiceLine tol=0.1
SYMBOL res 784 528 R90
WINDOW 0 0 56 VBottom 2
WINDOW 3 32 56 VTop 2
SYMATTR InstName R4
SYMATTR Value 3.09Meg
SYMATTR SpiceLine tol=1
SYMBOL cap -32 240 R0
SYMATTR InstName C1
SYMATTR Value 0.01µ
SYMBOL cap 752 624 R90
WINDOW 0 0 32 VBottom 2
WINDOW 3 32 32 VTop 2
SYMATTR InstName C2
SYMATTR Value 15p
SYMBOL cap -176 352 R180
WINDOW 0 24 56 Left 2
WINDOW 3 24 8 Left 2
SYMATTR InstName C3
SYMATTR Value 330p
SYMBOL polcap -48 -48 R0
SYMATTR InstName C4
SYMATTR Value 22µ
SYMATTR SpiceLine V=25 Rser=.05
SYMBOL polcap 928 336 R0
SYMATTR InstName C5
SYMATTR Value 150µ
SYMATTR SpiceLine V=6.3 Rser=.05
SYMBOL ind 736 288 R270
WINDOW 0 32 56 VTop 2
WINDOW 3 5 56 VBottom 2
SYMATTR InstName L1
SYMATTR Value 22µ
SYMBOL schottky 592 384 R180
WINDOW 0 24 64 Left 2
WINDOW 3 24 0 Left 2
SYMATTR InstName D1
SYMATTR Value PMEG2010EA
SYMATTR Description Diode
SYMATTR Type diode
SYMBOL pmos 528 240 M180
SYMATTR InstName M1
SYMATTR Value Si4425BDY
SYMBOL voltage -192 -80 R0
WINDOW 123 0 0 Left 2
WINDOW 39 24 44 Left 2
SYMATTR SpiceLine Rser=.02
SYMATTR InstName V1
SYMATTR Value 12.6
SYMBOL res 1072 256 R0
SYMATTR InstName Rload
SYMATTR Value 1
SYMBOL cap 432 -32 R0
SYMATTR InstName C6
SYMATTR Value 1n
TEXT -264 120 Left 2 !.tran 1m
